
     RDKit          3D

  4  3  0  0  0  0  0  0  0  0999 V2000
   -0.0313    1.3228    0.0162 N   0  0  0  0  0  0  0  0  0  0  0  0
   -0.0008    0.0329    0.0004 C   0  0  0  0  0  0  0  0  0  0  0  0
   -1.2149   -0.7074    0.0201 N   0  0  0  0  0  0  0  0  0  0  0  0
    1.2470   -0.6484   -0.0367 N   0  0  0  0  0  0  0  0  0  0  0  0
  1  2  2  0
  2  3  1  0
  2  4  1  0
M  END
$$$$
